
OS:Version,
  {424f2900-c9b7-45fd-92ba-d9fb575499de}, !- Handle
  2.2.0;                                  !- Version Identifier

OS:Site,
  {faecd613-9968-425f-9fdc-e929aa68dc07}, !- Handle
  Montreal Int'l_PQ_CAN,                  !- Name
  45.47,                                  !- Latitude {deg}
  -73.75,                                 !- Longitude {deg}
  -5,                                     !- Time Zone {hr}
  36,                                     !- Elevation {m}
  City;                                   !- Terrain

OS:SimulationControl,
  {15d51e58-1faf-4716-8aac-6c267c8c1139}, !- Handle
  Yes,                                    !- Do Zone Sizing Calculation
  Yes,                                    !- Do System Sizing Calculation
  Yes,                                    !- Do Plant Sizing Calculation
  No,                                     !- Run Simulation for Sizing Periods
  Yes,                                    !- Run Simulation for Weather File Run Periods
  0.04,                                   !- Loads Convergence Tolerance Value
  0.2,                                    !- Temperature Convergence Tolerance Value {deltaC}
  FullInteriorAndExterior,                !- Solar Distribution
  25,                                     !- Maximum Number of Warmup Days
  6;                                      !- Minimum Number of Warmup Days

OS:Surface,
  {b14a540a-8ac3-4fb4-b61e-cd33f920dd35}, !- Handle
  Bathrooms_ZN_1_FLR_2_Wall_4,            !- Name
  Wall,                                   !- Surface Type
  ,                                       !- Construction Name
  {8c07a26c-759e-4a0c-be83-e179d3ff1ba1}, !- Space Name
  Outdoors,                               !- Outside Boundary Condition
  ,                                       !- Outside Boundary Condition Object
  SunExposed,                             !- Sun Exposure
  WindExposed,                            !- Wind Exposure
  ,                                       !- View Factor to Ground
  ,                                       !- Number of Vertices
  15, 14, 4,                              !- X,Y,Z Vertex 1 {m}
  15, 14, 0,                              !- X,Y,Z Vertex 2 {m}
  0, 14, 0,                               !- X,Y,Z Vertex 3 {m}
  0, 14, 4;                               !- X,Y,Z Vertex 4 {m}

OS:Connection,
  {3daf5232-c140-4073-8a54-d868ab119172}, !- Handle
  {9592f81a-88d7-436f-9bad-f210e04a30bb}, !- Name
  ,                                       !- Source Object
  11,                                     !- Outlet Port
  ,                                       !- Target Object
  2;                                      !- Inlet Port

OS:Space,
  {8c07a26c-759e-4a0c-be83-e179d3ff1ba1}, !- Handle
  Bathrooms_ZN_1_FLR_2,                   !- Name
  {dd727ef6-3661-4601-a5e1-0a3ddd93e4c0}, !- Space Type Name
  ,                                       !- Default Construction Set Name
  ,                                       !- Default Schedule Set Name
  0,                                      !- Direction of Relative North {deg}
  64,                                     !- X Origin {m}
  90,                                     !- Y Origin {m}
  4,                                      !- Z Origin {m}
  {4d821eda-b5ee-48d5-86db-89d8b7c292a0}, !- Building Story Name
  {9b5e2f4c-0975-43e3-8271-7d6adc1e39cc}, !- Thermal Zone Name
  Yes;                                    !- Part of Total Floor Area

OS:Surface,
  {7ef6e8c5-bf4d-4669-89e1-78154a5a9a65}, !- Handle
  Corner_Class_2_Pod_3_ZN_1_FLR_2_Wall_3, !- Name
  Wall,                                   !- Surface Type
  ,                                       !- Construction Name
  {f70833c5-e11a-4fe3-b01f-1ec1692c6820}, !- Space Name
  Outdoors,                               !- Outside Boundary Condition
  ,                                       !- Outside Boundary Condition Object
  SunExposed,                             !- Sun Exposure
  WindExposed,                            !- Wind Exposure
  ,                                       !- View Factor to Ground
  ,                                       !- Number of Vertices
  11, 9, 4,                               !- X,Y,Z Vertex 1 {m}
  11, 9, 0,                               !- X,Y,Z Vertex 2 {m}
  0, 9, 0,                                !- X,Y,Z Vertex 3 {m}
  0, 9, 4;                                !- X,Y,Z Vertex 4 {m}

OS:Connection,
  {810bbf4f-ecea-46ac-8c19-13efbf0027fd}, !- Handle
  {39ba36c4-274d-47fb-bf74-595c688c06f3}, !- Name
  ,                                       !- Source Object
  11,                                     !- Outlet Port
  ,                                       !- Target Object
  2;                                      !- Inlet Port

OS:Space,
  {f70833c5-e11a-4fe3-b01f-1ec1692c6820}, !- Handle
  Corner_Class_2_Pod_3_ZN_1_FLR_2,        !- Name
  {2992cabe-f32e-43b1-83a9-12512702a3d7}, !- Space Type Name
  ,                                       !- Default Construction Set Name
  ,                                       !- Default Schedule Set Name
  0,                                      !- Direction of Relative North {deg}
  0,                                      !- X Origin {m}
  95,                                     !- Y Origin {m}
  4,                                      !- Z Origin {m}
  {4d821eda-b5ee-48d5-86db-89d8b7c292a0}, !- Building Story Name
  {d9fb9889-01ad-4bf8-ab63-33082329deb0}, !- Thermal Zone Name
  Yes;                                    !- Part of Total Floor Area

OS:Surface,
  {466bbd9d-853a-46c7-8656-a7cc8aa1a410}, !- Handle
  Kitchen_ZN_1_FLR_1_Floor,               !- Name
  Floor,                                  !- Surface Type
  ,                                       !- Construction Name
  {5ac31c4c-fc60-49f4-83e3-b5b17c6fe4fc}, !- Space Name
  Ground,                                 !- Outside Boundary Condition
  ,                                       !- Outside Boundary Condition Object
  NoSun,                                  !- Sun Exposure
  NoWind,                                 !- Wind Exposure
  ,                                       !- View Factor to Ground
  ,                                       !- Number of Vertices
  24, 9, 0,                               !- X,Y,Z Vertex 1 {m}
  24, 0, 0,                               !- X,Y,Z Vertex 2 {m}
  0, 0, 0,                                !- X,Y,Z Vertex 3 {m}
  0, 9, 0;                                !- X,Y,Z Vertex 4 {m}

OS:Connection,
  {0d02f7c4-82e0-4566-bedf-8548fb9d79fa}, !- Handle
  {ad48ea30-5506-4f01-92bd-f90e852acad9}, !- Name
  ,                                       !- Source Object
  11,                                     !- Outlet Port
  ,                                       !- Target Object
  2;                                      !- Inlet Port

OS:Space,
  {5ac31c4c-fc60-49f4-83e3-b5b17c6fe4fc}, !- Handle
  Kitchen_ZN_1_FLR_1,                     !- Name
  {c7aeaab0-f604-4e90-97ee-11462808ea02}, !- Space Type Name
  ,                                       !- Default Construction Set Name
  ,                                       !- Default Schedule Set Name
  0,                                      !- Direction of Relative North {deg}
  117,                                    !- X Origin {m}
  66,                                     !- Y Origin {m}
  0,                                      !- Z Origin {m}
  {7706be27-4082-4c44-abfd-979f50d9e943}, !- Building Story Name
  {239b38ec-7a6d-4ab0-a01a-d0a4a321cbbb}, !- Thermal Zone Name
  Yes;                                    !- Part of Total Floor Area

OS:Connection,
  {3c583f04-3d48-4edf-8dc0-727ec1de4fc8}, !- Handle
  {165afff4-e748-4e2f-bef4-793384703f30}, !- Name
  ,                                       !- Source Object
  11,                                     !- Outlet Port
  ,                                       !- Target Object
  2;                                      !- Inlet Port

OS:Space,
  {ca77a65a-8c83-47b2-8f2a-9d681b5b657c}, !- Handle
  Corner_Class_1_Pod_2_ZN_1_FLR_1,        !- Name
  {2992cabe-f32e-43b1-83a9-12512702a3d7}, !- Space Type Name
  ,                                       !- Default Construction Set Name
  ,                                       !- Default Schedule Set Name
  0,                                      !- Direction of Relative North {deg}
  0,                                      !- X Origin {m}
  40,                                     !- Y Origin {m}
  0,                                      !- Z Origin {m}
  {7706be27-4082-4c44-abfd-979f50d9e943}, !- Building Story Name
  {a4b16616-c619-4910-8d10-ccfb23446a60}, !- Thermal Zone Name
  Yes;                                    !- Part of Total Floor Area

OS:SubSurface,
  {46d4a197-8aa7-49f9-8cca-70373b802fb4}, !- Handle
  Gym_ZN_1_FLR_2_skylight_44,             !- Name
  Skylight,                               !- Sub Surface Type
  ,                                       !- Construction Name
  {4b4b6a4c-1a14-40ab-ad3b-d253940966b3}, !- Surface Name
  ,                                       !- Outside Boundary Condition Object
  ,                                       !- View Factor to Ground
  ,                                       !- Shading Control Name
  ,                                       !- Frame and Divider Name
  1,                                      !- Multiplier
  ,                                       !- Number of Vertices
  10.11, 42.7237, 8,                      !- X,Y,Z Vertex 1 {m}
  10.11, 43.9429, 8,                      !- X,Y,Z Vertex 2 {m}
  8.89, 43.9429, 8,                       !- X,Y,Z Vertex 3 {m}
  8.89, 42.7237, 8;                       !- X,Y,Z Vertex 4 {m}

OS:Surface,
  {4b4b6a4c-1a14-40ab-ad3b-d253940966b3}, !- Handle
  Gym_ZN_1_FLR_2_Ceiling,                 !- Name
  RoofCeiling,                            !- Surface Type
  ,                                       !- Construction Name
  {5b6d79a1-ca37-4ac2-86a5-1120aebe4e62}, !- Space Name
  Outdoors,                               !- Outside Boundary Condition
  ,                                       !- Outside Boundary Condition Object
  SunExposed,                             !- Sun Exposure
  WindExposed,                            !- Wind Exposure
  ,                                       !- View Factor to Ground
  ,                                       !- Number of Vertices
  38, 0, 8,                               !- X,Y,Z Vertex 1 {m}
  38, 52, 8,                              !- X,Y,Z Vertex 2 {m}
  0, 52, 8,                               !- X,Y,Z Vertex 3 {m}
  0, 0, 8;                                !- X,Y,Z Vertex 4 {m}

OS:Connection,
  {f6d493f2-07d8-4629-8718-f178beb56343}, !- Handle
  {963a57e1-8a25-4e3b-bfe0-e1ba11eef2e6}, !- Name
  ,                                       !- Source Object
  11,                                     !- Outlet Port
  ,                                       !- Target Object
  2;                                      !- Inlet Port

OS:Space,
  {5b6d79a1-ca37-4ac2-86a5-1120aebe4e62}, !- Handle
  Gym_ZN_1_FLR_1,                         !- Name
  {0d32aa39-475f-400a-a27b-e9cdf7794036}, !- Space Type Name
  ,                                       !- Default Construction Set Name
  ,                                       !- Default Schedule Set Name
  0,                                      !- Direction of Relative North {deg}
  79,                                     !- X Origin {m}
  14,                                     !- Y Origin {m}
  0,                                      !- Z Origin {m}
  {7706be27-4082-4c44-abfd-979f50d9e943}, !- Building Story Name
  {cda95fd0-16bc-47ec-8566-418134b3cf58}, !- Thermal Zone Name
  Yes;                                    !- Part of Total Floor Area

OS:SubSurface,
  {37656382-f771-4078-a8c3-6372271a9a0e}, !- Handle
  Offices_ZN_1_FLR_1_Wall_1_window_1,     !- Name
  FixedWindow,                            !- Sub Surface Type
  ,                                       !- Construction Name
  {52eeee34-1919-4eec-abc4-9285a85be0dc}, !- Surface Name
  ,                                       !- Outside Boundary Condition Object
  ,                                       !- View Factor to Ground
  ,                                       !- Shading Control Name
  ,                                       !- Frame and Divider Name
  1,                                      !- Multiplier
  ,                                       !- Number of Vertices
  0.05, 0, 2.50371,                       !- X,Y,Z Vertex 1 {m}
  0.05, 0, 1.1,                           !- X,Y,Z Vertex 2 {m}
  37.95, 0, 1.1,                          !- X,Y,Z Vertex 3 {m}
  37.95, 0, 2.50371;                      !- X,Y,Z Vertex 4 {m}

OS:Surface,
  {52eeee34-1919-4eec-abc4-9285a85be0dc}, !- Handle
  Offices_ZN_1_FLR_1_Wall_1,              !- Name
  Wall,                                   !- Surface Type
  ,                                       !- Construction Name
  {07897017-2f7d-4da1-85cc-9c9ec7088e51}, !- Space Name
  Outdoors,                               !- Outside Boundary Condition
  ,                                       !- Outside Boundary Condition Object
  SunExposed,                             !- Sun Exposure
  WindExposed,                            !- Wind Exposure
  ,                                       !- View Factor to Ground
  ,                                       !- Number of Vertices
  0, 0, 4,                                !- X,Y,Z Vertex 1 {m}
  0, 0, 0,                                !- X,Y,Z Vertex 2 {m}
  38, 0, 0,                               !- X,Y,Z Vertex 3 {m}
  38, 0, 4;                               !- X,Y,Z Vertex 4 {m}

OS:Connection,
  {c28987b0-2c44-497e-bf5c-424849135b68}, !- Handle
  {9273b6ad-a20d-433a-860b-615c18d65e9c}, !- Name
  ,                                       !- Source Object
  11,                                     !- Outlet Port
  ,                                       !- Target Object
  2;                                      !- Inlet Port

OS:Space,
  {07897017-2f7d-4da1-85cc-9c9ec7088e51}, !- Handle
  Offices_ZN_1_FLR_1,                     !- Name
  {bce2eaaf-a6e3-4ee9-abd3-7af0098974ac}, !- Space Type Name
  ,                                       !- Default Construction Set Name
  ,                                       !- Default Schedule Set Name
  0,                                      !- Direction of Relative North {deg}
  79,                                     !- X Origin {m}
  0,                                      !- Y Origin {m}
  0,                                      !- Z Origin {m}
  {7706be27-4082-4c44-abfd-979f50d9e943}, !- Building Story Name
  {1e0ea282-7465-4284-afd9-a5f150e34027}, !- Thermal Zone Name
  Yes;                                    !- Part of Total Floor Area

OS:Surface,
  {a82b9ed5-c277-43fb-abe1-8881e66e7591}, !- Handle
  Corridor_Pod_1_ZN_1_FLR_2_Wall_6,       !- Name
  Wall,                                   !- Surface Type
  ,                                       !- Construction Name
  {98a24e6c-59af-448d-bf56-daadacedc0c5}, !- Space Name
  Outdoors,                               !- Outside Boundary Condition
  ,                                       !- Outside Boundary Condition Object
  SunExposed,                             !- Sun Exposure
  WindExposed,                            !- Wind Exposure
  ,                                       !- View Factor to Ground
  ,                                       !- Number of Vertices
  0, 5, 4,                                !- X,Y,Z Vertex 1 {m}
  0, 5, 0,                                !- X,Y,Z Vertex 2 {m}
  0, 0, 0,                                !- X,Y,Z Vertex 3 {m}
  0, 0, 4;                                !- X,Y,Z Vertex 4 {m}

OS:Connection,
  {25d6007f-cdcd-4f8e-ad3d-e752156c3b7c}, !- Handle
  {f936dd51-8939-4e6b-a5bf-8205d65c4b02}, !- Name
  ,                                       !- Source Object
  11,                                     !- Outlet Port
  ,                                       !- Target Object
  2;                                      !- Inlet Port

OS:Space,
  {98a24e6c-59af-448d-bf56-daadacedc0c5}, !- Handle
  Corridor_Pod_1_ZN_1_FLR_2,              !- Name
  {b23ea61d-b541-42ab-b377-38c36354f3aa}, !- Space Type Name
  ,                                       !- Default Construction Set Name
  ,                                       !- Default Schedule Set Name
  0,                                      !- Direction of Relative North {deg}
  0,                                      !- X Origin {m}
  9,                                      !- Y Origin {m}
  4,                                      !- Z Origin {m}
  {4d821eda-b5ee-48d5-86db-89d8b7c292a0}, !- Building Story Name
  {b7217210-ba03-4472-bd29-baf2fe25a25f}, !- Thermal Zone Name
  Yes;                                    !- Part of Total Floor Area

OS:Surface,
  {c1818fb5-6767-489e-b5b5-e765a5cf5ae2}, !- Handle
  Auditorium_ZN_1_FLR_2_Wall_2,           !- Name
  Wall,                                   !- Surface Type
  ,                                       !- Construction Name
  {9afb3bcc-f466-426d-84be-d73696352d8a}, !- Space Name
  Surface,                                !- Outside Boundary Condition
  {5cb2bea6-af2a-4351-9f64-e14feb99ded8}, !- Outside Boundary Condition Object
  NoSun,                                  !- Sun Exposure
  NoWind,                                 !- Wind Exposure
  ,                                       !- View Factor to Ground
  ,                                       !- Number of Vertices
  38, 0, 8,                               !- X,Y,Z Vertex 1 {m}
  38, 0, 4,                               !- X,Y,Z Vertex 2 {m}
  38, 26, 4,                              !- X,Y,Z Vertex 3 {m}
  38, 26, 8;                              !- X,Y,Z Vertex 4 {m}

OS:Connection,
  {8396b6b9-90e6-4144-bc44-e3d23597515e}, !- Handle
  {dc208c24-9d86-4600-95f7-ca30803e6818}, !- Name
  ,                                       !- Source Object
  11,                                     !- Outlet Port
  ,                                       !- Target Object
  2;                                      !- Inlet Port

OS:Space,
  {9afb3bcc-f466-426d-84be-d73696352d8a}, !- Handle
  Auditorium_ZN_1_FLR_1,                  !- Name
  {b9c4d8a6-70a1-4e12-ba50-9d58f5a96e9f}, !- Space Type Name
  ,                                       !- Default Construction Set Name
  ,                                       !- Default Schedule Set Name
  0,                                      !- Direction of Relative North {deg}
  79,                                     !- X Origin {m}
  75,                                     !- Y Origin {m}
  0,                                      !- Z Origin {m}
  {7706be27-4082-4c44-abfd-979f50d9e943}, !- Building Story Name
  {fd8b14eb-f418-48d1-ba68-dd34ad497688}, !- Thermal Zone Name
  Yes;                                    !- Part of Total Floor Area

OS:Connection,
  {2b0117e1-369f-4c23-b973-5471faf8eb55}, !- Handle
  {1aaf87f2-35ad-4212-8bd1-b787896d15d1}, !- Name
  ,                                       !- Source Object
  11,                                     !- Outlet Port
  ,                                       !- Target Object
  2;                                      !- Inlet Port

OS:Space,
  {9642778a-9cfa-4d96-a768-710240677291}, !- Handle
  LIBRARY_MEDIA_CENTER_ZN_1_FLR_2,        !- Name
  {c35c20ca-ef76-4975-8173-2aa43a79ff73}, !- Space Type Name
  ,                                       !- Default Construction Set Name
  ,                                       !- Default Schedule Set Name
  0,                                      !- Direction of Relative North {deg}
  117,                                    !- X Origin {m}
  66,                                     !- Y Origin {m}
  4,                                      !- Z Origin {m}
  {4d821eda-b5ee-48d5-86db-89d8b7c292a0}, !- Building Story Name
  {a7d65907-7c09-490e-b438-cac1eede0c90}, !- Thermal Zone Name
  Yes;                                    !- Part of Total Floor Area

OS:Surface,
  {b3ccb0a3-6522-43bb-87b1-1127ff5bdecf}, !- Handle
  Mult_Class_2_Pod_2_ZN_1_FLR_1_Wall_3,   !- Name
  Wall,                                   !- Surface Type
  ,                                       !- Construction Name
  {8b1f8f19-8d7c-433c-9ecc-bfb247b3b7d4}, !- Space Name
  Outdoors,                               !- Outside Boundary Condition
  ,                                       !- Outside Boundary Condition Object
  SunExposed,                             !- Sun Exposure
  WindExposed,                            !- Wind Exposure
  ,                                       !- View Factor to Ground
  ,                                       !- Number of Vertices
  53, 9, 4,                               !- X,Y,Z Vertex 1 {m}
  53, 9, 0,                               !- X,Y,Z Vertex 2 {m}
  0, 9, 0,                                !- X,Y,Z Vertex 3 {m}
  0, 9, 4;                                !- X,Y,Z Vertex 4 {m}

OS:Connection,
  {37b79caf-b484-4158-9ca9-8e009289efbf}, !- Handle
  {d9d174b6-d9ae-4ebc-8003-c6b74e24d452}, !- Name
  ,                                       !- Source Object
  11,                                     !- Outlet Port
  ,                                       !- Target Object
  2;                                      !- Inlet Port

OS:Space,
  {8b1f8f19-8d7c-433c-9ecc-bfb247b3b7d4}, !- Handle
  Mult_Class_2_Pod_2_ZN_1_FLR_1,          !- Name
  {2992cabe-f32e-43b1-83a9-12512702a3d7}, !- Space Type Name
  ,                                       !- Default Construction Set Name
  ,                                       !- Default Schedule Set Name
  0,                                      !- Direction of Relative North {deg}
  11,                                     !- X Origin {m}
  54,                                     !- Y Origin {m}
  0,                                      !- Z Origin {m}
  {7706be27-4082-4c44-abfd-979f50d9e943}, !- Building Story Name
  {40d9bdd9-438e-48e1-b6a6-ff6408b9e4f4}, !- Thermal Zone Name
  Yes;                                    !- Part of Total Floor Area

OS:Surface,
  {35611eec-683e-4c41-a585-bb48caa0a1ed}, !- Handle
  Corridor_Pod_1_ZN_1_FLR_2_Wall_1,       !- Name
  Wall,                                   !- Surface Type
  ,                                       !- Construction Name
  {98a24e6c-59af-448d-bf56-daadacedc0c5}, !- Space Name
  Surface,                                !- Outside Boundary Condition
  {e256f2a1-a05c-4d15-a632-bbce1c1f6e05}, !- Outside Boundary Condition Object
  NoSun,                                  !- Sun Exposure
  NoWind,                                 !- Wind Exposure
  ,                                       !- View Factor to Ground
  ,                                       !- Number of Vertices
  0, 0, 4,                                !- X,Y,Z Vertex 1 {m}
  0, 0, 0,                                !- X,Y,Z Vertex 2 {m}
  11, 0, 0,                               !- X,Y,Z Vertex 3 {m}
  11, 0, 4;                               !- X,Y,Z Vertex 4 {m}

OS:SubSurface,
  {db357969-fe3d-484b-be80-38e71946881a}, !- Handle
  Aux_Gym_ZN_1_FLR_2_skylight_25,         !- Name
  Skylight,                               !- Sub Surface Type
  ,                                       !- Construction Name
  {89fd87b6-ce0e-4e53-82e1-edc9a39bf1aa}, !- Surface Name
  ,                                       !- Outside Boundary Condition Object
  ,                                       !- View Factor to Ground
  ,                                       !- Shading Control Name
  ,                                       !- Frame and Divider Name
  1,                                      !- Multiplier
  ,                                       !- Number of Vertices
  3.61, 36.946, 8,                        !- X,Y,Z Vertex 1 {m}
  3.61, 38.1652, 8,                       !- X,Y,Z Vertex 2 {m}
  2.39, 38.1652, 8,                       !- X,Y,Z Vertex 3 {m}
  2.39, 36.946, 8;                        !- X,Y,Z Vertex 4 {m}

OS:Surface,
  {89fd87b6-ce0e-4e53-82e1-edc9a39bf1aa}, !- Handle
  Aux_Gym_ZN_1_FLR_2_Ceiling,             !- Name
  RoofCeiling,                            !- Surface Type
  ,                                       !- Construction Name
  {8e6e73b2-43d7-4a77-a53a-c3b09d195d59}, !- Space Name
  Outdoors,                               !- Outside Boundary Condition
  ,                                       !- Outside Boundary Condition Object
  SunExposed,                             !- Sun Exposure
  WindExposed,                            !- Wind Exposure
  ,                                       !- View Factor to Ground
  ,                                       !- Number of Vertices
  24, 0, 8,                               !- X,Y,Z Vertex 1 {m}
  24, 52, 8,                              !- X,Y,Z Vertex 2 {m}
  0, 52, 8,                               !- X,Y,Z Vertex 3 {m}
  0, 0, 8;                                !- X,Y,Z Vertex 4 {m}

OS:Connection,
  {25e988c3-0a48-4ba9-a6af-150e7f60c727}, !- Handle
  {0e9e9dd7-638e-4ab5-9d9b-103f76e8e679}, !- Name
  ,                                       !- Source Object
  11,                                     !- Outlet Port
  ,                                       !- Target Object
  2;                                      !- Inlet Port

OS:Space,
  {8e6e73b2-43d7-4a77-a53a-c3b09d195d59}, !- Handle
  Aux_Gym_ZN_1_FLR_1,                     !- Name
  {0d32aa39-475f-400a-a27b-e9cdf7794036}, !- Space Type Name
  ,                                       !- Default Construction Set Name
  ,                                       !- Default Schedule Set Name
  0,                                      !- Direction of Relative North {deg}
  117,                                    !- X Origin {m}
  14,                                     !- Y Origin {m}
  0,                                      !- Z Origin {m}
  {7706be27-4082-4c44-abfd-979f50d9e943}, !- Building Story Name
  {e9e31215-fffc-47de-806b-d170853b7195}, !- Thermal Zone Name
  Yes;                                    !- Part of Total Floor Area

OS:Connection,
  {3cc4e9d4-ca63-462c-905c-d275a786593c}, !- Handle
  {31819467-2e10-43f2-8d27-6e1de1b8509e}, !- Name
  ,                                       !- Source Object
  11,                                     !- Outlet Port
  ,                                       !- Target Object
  2;                                      !- Inlet Port

OS:Space,
  {b6c86a90-edfc-4e71-b6f9-346cd0a38717}, !- Handle
  Mult_Class_1_Pod_2_ZN_1_FLR_1,          !- Name
  {2992cabe-f32e-43b1-83a9-12512702a3d7}, !- Space Type Name
  ,                                       !- Default Construction Set Name
  ,                                       !- Default Schedule Set Name
  0,                                      !- Direction of Relative North {deg}
  11,                                     !- X Origin {m}
  40,                                     !- Y Origin {m}
  0,                                      !- Z Origin {m}
  {7706be27-4082-4c44-abfd-979f50d9e943}, !- Building Story Name
  {d1ea891d-9f5c-4e54-8a5b-7d5d2d904943}, !- Thermal Zone Name
  Yes;                                    !- Part of Total Floor Area

OS:Connection,
  {8dab90fd-8296-4c8c-8629-dc48fda4b6dc}, !- Handle
  {4806941e-deac-47db-a779-f9bb4a1cf2ef}, !- Name
  ,                                       !- Source Object
  11,                                     !- Outlet Port
  ,                                       !- Target Object
  2;                                      !- Inlet Port

OS:Space,
  {dda8118e-5bf7-4453-bed7-34efb3eb3a63}, !- Handle
  Mult_Class_1_Pod_3_ZN_1_FLR_2,          !- Name
  {2992cabe-f32e-43b1-83a9-12512702a3d7}, !- Space Type Name
  ,                                       !- Default Construction Set Name
  ,                                       !- Default Schedule Set Name
  0,                                      !- Direction of Relative North {deg}
  11,                                     !- X Origin {m}
  81,                                     !- Y Origin {m}
  4,                                      !- Z Origin {m}
  {4d821eda-b5ee-48d5-86db-89d8b7c292a0}, !- Building Story Name
  {9c846e95-aba5-494b-80ce-8bcd6d32518a}, !- Thermal Zone Name
  Yes;                                    !- Part of Total Floor Area

OS:Connection,
  {4a111ba5-a823-4ad1-bd5b-6bf12c6be0e0}, !- Handle
  {791781ef-e1b9-4788-acba-4060d3c0160c}, !- Name
  ,                                       !- Source Object
  11,                                     !- Outlet Port
  ,                                       !- Target Object
  2;                                      !- Inlet Port

OS:Space,
  {db901331-8783-4932-bbcd-197c7bbbb277}, !- Handle
  Corner_Class_1_Pod_3_ZN_1_FLR_2,        !- Name
  {2992cabe-f32e-43b1-83a9-12512702a3d7}, !- Space Type Name
  ,                                       !- Default Construction Set Name
  ,                                       !- Default Schedule Set Name
  0,                                      !- Direction of Relative North {deg}
  0,                                      !- X Origin {m}
  81,                                     !- Y Origin {m}
  4,                                      !- Z Origin {m}
  {4d821eda-b5ee-48d5-86db-89d8b7c292a0}, !- Building Story Name
  {5bac481d-a0c2-41e2-9aff-7fa50233046b}, !- Thermal Zone Name
  Yes;                                    !- Part of Total Floor Area

OS:Connection,
  {0655efd8-9472-4083-bf8b-829e473f8697}, !- Handle
  {80c84495-d17f-47c8-a28a-db5b4444ee84}, !- Name
  ,                                       !- Source Object
  11,                                     !- Outlet Port
  ,                                       !- Target Object
  2;                                      !- Inlet Port

OS:Space,
  {b7ed1746-e328-4d40-9bf6-a1219420f787}, !- Handle
  Mult_Class_2_Pod_1_ZN_1_FLR_1,          !- Name
  {2992cabe-f32e-43b1-83a9-12512702a3d7}, !- Space Type Name