
OS:Version,
  {82d565c5-ee68-4df0-bc23-41c5a4f6f37c}, !- Handle
  2.2.0;                                  !- Version Identifier

OS:Site,
  {8ffe45b3-ba5c-4e6f-b1e0-6f8db1fc384d}, !- Handle
  Brandon_MB_CAN,                         !- Name
  49.92,                                  !- Latitude {deg}
  -99.95,                                 !- Longitude {deg}
  -6,                                     !- Time Zone {hr}
  409,                                    !- Elevation {m}
  City;                                   !- Terrain

OS:SimulationControl,
  {e0be8f1c-42ca-460f-86ff-704454b20153}, !- Handle
  Yes,                                    !- Do Zone Sizing Calculation
  Yes,                                    !- Do System Sizing Calculation
  Yes,                                    !- Do Plant Sizing Calculation
  No,                                     !- Run Simulation for Sizing Periods
  Yes,                                    !- Run Simulation for Weather File Run Periods
  0.04,                                   !- Loads Convergence Tolerance Value
  0.2,                                    !- Temperature Convergence Tolerance Value {deltaC}
  FullInteriorAndExterior,                !- Solar Distribution
  25,                                     !- Maximum Number of Warmup Days
  6;                                      !- Minimum Number of Warmup Days

OS:Connection,
  {e87cf0dd-75d8-4082-bc75-e5b4c972b8da}, !- Handle
  {84e9a279-2d06-490f-93fe-72227f5a9fd2}, !- Name
  ,                                       !- Source Object
  11,                                     !- Outlet Port
  ,                                       !- Target Object
  2;                                      !- Inlet Port

OS:Space,
  {63914f1b-81ad-46f1-8ec4-f134d29faafd}, !- Handle
  Corner_Class_2_Pod_3_ZN_1_FLR_1,        !- Name
  {5dabe0c9-22cf-4c51-84f5-02836af7bf0f}, !- Space Type Name
  ,                                       !- Default Construction Set Name
  ,                                       !- Default Schedule Set Name
  0,                                      !- Direction of Relative North {deg}
  -64,                                    !- X Origin {m}
  73,                                     !- Y Origin {m}
  0,                                      !- Z Origin {m}
  {0fdcbf6a-4d91-46e1-9c57-01cf3ce41868}, !- Building Story Name
  {7078d86f-c22a-43c5-80f1-db1ea5e9ed7c}, !- Thermal Zone Name
  Yes,                                    !- Part of Total Floor Area
  ;                                       !- Design Specification Outdoor Air Object Name

OS:Surface,
  {8477eb73-e4c6-4a3b-b6a7-168182fe7087}, !- Handle
  Library_Media_Center_ZN_1_FLR_1_Wall_4, !- Name
  Wall,                                   !- Surface Type
  ,                                       !- Construction Name
  {6fb8450c-0f97-450e-95a8-2b09bde8ba0e}, !- Space Name
  Surface,                                !- Outside Boundary Condition
  {c2ee0504-4b9e-4525-b69c-8a1675be8e70}, !- Outside Boundary Condition Object
  NoSun,                                  !- Sun Exposure
  NoWind,                                 !- Wind Exposure
  ,                                       !- View Factor to Ground
  ,                                       !- Number of Vertices
  0, 21, 4,                               !- X,Y,Z Vertex 1 {m}
  0, 21, 0,                               !- X,Y,Z Vertex 2 {m}
  0, 12, 0,                               !- X,Y,Z Vertex 3 {m}
  0, 12, 4;                               !- X,Y,Z Vertex 4 {m}

OS:Connection,
  {2a9e3c1b-c51c-48b5-9290-07bcaa08c904}, !- Handle
  {2a478055-6d20-4b68-844a-4008e12c7218}, !- Name
  ,                                       !- Source Object
  11,                                     !- Outlet Port
  ,                                       !- Target Object
  2;                                      !- Inlet Port

OS:Space,
  {6fb8450c-0f97-450e-95a8-2b09bde8ba0e}, !- Handle
  Library_Media_Center_ZN_1_FLR_1,        !- Name
  {ce53d83d-3734-4abd-9c97-176ff1f86ffa}, !- Space Type Name
  ,                                       !- Default Construction Set Name
  ,                                       !- Default Schedule Set Name
  0,                                      !- Direction of Relative North {deg}
  0,                                      !- X Origin {m}
  61,                                     !- Y Origin {m}
  0,                                      !- Z Origin {m}
  {0fdcbf6a-4d91-46e1-9c57-01cf3ce41868}, !- Building Story Name
  {8b6a2c3c-44f0-4549-a324-0a673201e02c}, !- Thermal Zone Name
  Yes,                                    !- Part of Total Floor Area
  ;                                       !- Design Specification Outdoor Air Object Name

OS:Surface,
  {3eb3ae5c-017b-4e87-b2d3-b4e26f88b67d}, !- Handle
  Main_Corridor_ZN_1_FLR_1_Wall_1,        !- Name
  Wall,                                   !- Surface Type
  ,                                       !- Construction Name
  {21b6b646-3086-4571-89e4-599d3ed0931f}, !- Space Name
  Surface,                                !- Outside Boundary Condition
  {07cc5df9-d266-4f18-ab46-1070249f2678}, !- Outside Boundary Condition Object
  NoSun,                                  !- Sun Exposure
  NoWind,                                 !- Wind Exposure
  ,                                       !- View Factor to Ground
  ,                                       !- Number of Vertices
  0, 0, 4,                                !- X,Y,Z Vertex 1 {m}
  0, 0, 0,                                !- X,Y,Z Vertex 2 {m}
  13, 0, 0,                               !- X,Y,Z Vertex 3 {m}
  13, 0, 4;                               !- X,Y,Z Vertex 4 {m}

OS:Connection,
  {d6f2698c-1825-4c3e-9907-b93fe36892ad}, !- Handle
  {a73e86df-189f-478e-a2da-4184a5036f68}, !- Name
  ,                                       !- Source Object
  11,                                     !- Outlet Port
  ,                                       !- Target Object
  2;                                      !- Inlet Port

OS:Space,
  {21b6b646-3086-4571-89e4-599d3ed0931f}, !- Handle
  Main_Corridor_ZN_1_FLR_1,               !- Name
  {9ecf549f-9cfa-4406-b0fd-ece6107f5aa5}, !- Space Type Name
  ,                                       !- Default Construction Set Name
  ,                                       !- Default Schedule Set Name
  0,                                      !- Direction of Relative North {deg}
  0,                                      !- X Origin {m}
  9,                                      !- Y Origin {m}
  0,                                      !- Z Origin {m}
  {0fdcbf6a-4d91-46e1-9c57-01cf3ce41868}, !- Building Story Name
  {2969053f-48c0-45b1-a4c5-e62d6317d969}, !- Thermal Zone Name
  Yes,                                    !- Part of Total Floor Area
  ;                                       !- Design Specification Outdoor Air Object Name

OS:Surface,
  {04779afd-e129-4e7e-9605-445aa9beb019}, !- Handle
  Corridor_Pod_2_ZN_1_FLR_1_Wall_5,       !- Name
  Wall,                                   !- Surface Type
  ,                                       !- Construction Name
  {1c5d884c-3114-45bf-bcde-b3b44edb3d6f}, !- Space Name
  Surface,                                !- Outside Boundary Condition
  {19061c54-e8b5-47f3-9bae-f4a3fb913639}, !- Outside Boundary Condition Object
  NoSun,                                  !- Sun Exposure
  NoWind,                                 !- Wind Exposure
  ,                                       !- View Factor to Ground
  ,                                       !- Number of Vertices
  11, 3, 4,                               !- X,Y,Z Vertex 1 {m}
  11, 3, 0,                               !- X,Y,Z Vertex 2 {m}
  0, 3, 0,                                !- X,Y,Z Vertex 3 {m}
  0, 3, 4;                                !- X,Y,Z Vertex 4 {m}

OS:Connection,
  {114c5d10-9ec1-4d94-b0a4-a8c11f1bdaa8}, !- Handle
  {39f5659f-c24c-41c1-b6e7-18008b0d1bc4}, !- Name
  ,                                       !- Source Object
  11,                                     !- Outlet Port
  ,                                       !- Target Object
  2;                                      !- Inlet Port

OS:Space,
  {1c5d884c-3114-45bf-bcde-b3b44edb3d6f}, !- Handle
  Corridor_Pod_2_ZN_1_FLR_1,              !- Name
  {9ecf549f-9cfa-4406-b0fd-ece6107f5aa5}, !- Space Type Name
  ,                                       !- Default Construction Set Name
  ,                                       !- Default Schedule Set Name
  0,                                      !- Direction of Relative North {deg}
  -64,                                    !- X Origin {m}
  39,                                     !- Y Origin {m}
  0,                                      !- Z Origin {m}
  {0fdcbf6a-4d91-46e1-9c57-01cf3ce41868}, !- Building Story Name
  {15191987-1091-4068-9b5a-c37c8397371a}, !- Thermal Zone Name
  Yes,                                    !- Part of Total Floor Area
  ;                                       !- Design Specification Outdoor Air Object Name

OS:Connection,
  {ea2e0d93-6b9a-45f1-9b19-36745ff609c7}, !- Handle
  {e91d1814-236f-4880-ac61-5590def5896b}, !- Name
  ,                                       !- Source Object
  11,                                     !- Outlet Port
  ,                                       !- Target Object
  2;                                      !- Inlet Port

OS:Space,
  {cdc4f9bf-dd9b-4c38-a701-997f622fdec4}, !- Handle
  Mult_Class_2_Pod_2_ZN_1_FLR_1,          !- Name
  {5dabe0c9-22cf-4c51-84f5-02836af7bf0f}, !- Space Type Name
  ,                                       !- Default Construction Set Name
  ,                                       !- Default Schedule Set Name
  0,                                      !- Direction of Relative North {deg}
  -53,                                    !- X Origin {m}
  42,                                     !- Y Origin {m}
  0,                                      !- Z Origin {m}
  {0fdcbf6a-4d91-46e1-9c57-01cf3ce41868}, !- Building Story Name
  {831a7139-3978-4c86-a722-762017ebb9ca}, !- Thermal Zone Name
  Yes,                                    !- Part of Total Floor Area
  ;                                       !- Design Specification Outdoor Air Object Name

OS:Surface,
  {ddb4b0bc-7763-4497-aa35-4290da935de8}, !- Handle
  Kitchen_ZN_1_FLR_1_Wall_4,              !- Name
  Wall,                                   !- Surface Type
  ,                                       !- Construction Name
  {7e16685d-bb80-41eb-95d7-ebe790a13036}, !- Space Name
  Surface,                                !- Outside Boundary Condition
  {3a043143-c84e-426b-84f1-30b9aadea31d}, !- Outside Boundary Condition Object
  NoSun,                                  !- Sun Exposure
  NoWind,                                 !- Wind Exposure
  ,                                       !- View Factor to Ground
  ,                                       !- Number of Vertices
  0, 8, 4,                                !- X,Y,Z Vertex 1 {m}
  0, 8, 0,                                !- X,Y,Z Vertex 2 {m}
  0, 0, 0,                                !- X,Y,Z Vertex 3 {m}
  0, 0, 4;                                !- X,Y,Z Vertex 4 {m}

OS:Connection,
  {4530ebe0-acf7-4757-a1bc-1aa2a31f051e}, !- Handle
  {ae1acc7a-0f3f-4a3d-a463-bc3df4e0096b}, !- Name
  ,                                       !- Source Object
  11,                                     !- Outlet Port
  ,                                       !- Target Object
  2;                                      !- Inlet Port

OS:Space,
  {7e16685d-bb80-41eb-95d7-ebe790a13036}, !- Handle
  Kitchen_ZN_1_FLR_1,                     !- Name
  {ccfd2065-805b-45d8-a793-ab800978e9e7}, !- Space Type Name
  ,                                       !- Default Construction Set Name
  ,                                       !- Default Schedule Set Name
  0,                                      !- Direction of Relative North {deg}
  19,                                     !- X Origin {m}
  38,                                     !- Y Origin {m}
  0,                                      !- Z Origin {m}
  {0fdcbf6a-4d91-46e1-9c57-01cf3ce41868}, !- Building Story Name
  {e16141a5-6d6a-478e-9caa-86cd7681657a}, !- Thermal Zone Name
  Yes,                                    !- Part of Total Floor Area
  ;                                       !- Design Specification Outdoor Air Object Name

OS:Connection,
  {3bdaa28a-482d-4989-a21a-0d466c52bfd8}, !- Handle
  {f30a1a83-6c57-4bbf-9e82-88d533c5f182}, !- Name
  ,                                       !- Source Object
  11,                                     !- Outlet Port
  ,                                       !- Target Object
  2;                                      !- Inlet Port

OS:Space,
  {1a33b7f9-bf42-48ab-8bf7-5f3aa388e87b}, !- Handle
  Mult_Class_1_Pod_3_ZN_1_FLR_1,          !- Name
  {5dabe0c9-22cf-4c51-84f5-02836af7bf0f}, !- Space Type Name
  ,                                       !- Default Construction Set Name
  ,                                       !- Default Schedule Set Name
  0,                                      !- Direction of Relative North {deg}
  -53,                                    !- X Origin {m}
  61,                                     !- Y Origin {m}
  0,                                      !- Z Origin {m}
  {0fdcbf6a-4d91-46e1-9c57-01cf3ce41868}, !- Building Story Name
  {82b2edbd-6566-46c8-9ffc-b10002b42221}, !- Thermal Zone Name
  Yes,                                    !- Part of Total Floor Area
  ;                                       !- Design Specification Outdoor Air Object Name

OS:Surface,
  {397e301d-1bf9-4c66-b22f-2cb43de4a540}, !- Handle
  Main_Corridor_ZN_1_FLR_1_Wall_4,        !- Name
  Wall,                                   !- Surface Type
  ,                                       !- Construction Name
  {21b6b646-3086-4571-89e4-599d3ed0931f}, !- Space Name
  Surface,                                !- Outside Boundary Condition
  {e42ddd72-db2a-45a3-801c-bb449ae6f57e}, !- Outside Boundary Condition Object
  NoSun,                                  !- Sun Exposure
  NoWind,                                 !- Wind Exposure
  ,                                       !- View Factor to Ground
  ,                                       !- Number of Vertices
  0, 42, 4,                               !- X,Y,Z Vertex 1 {m}
  0, 42, 0,                               !- X,Y,Z Vertex 2 {m}
  0, 33, 0,                               !- X,Y,Z Vertex 3 {m}
  0, 33, 4;                               !- X,Y,Z Vertex 4 {m}

OS:Connection,
  {00f4b343-331a-404a-ab27-99f41695841d}, !- Handle
  {309a3fb9-8cbd-4f11-a7f9-eb7b879fb946}, !- Name
  ,                                       !- Source Object
  11,                                     !- Outlet Port
  ,                                       !- Target Object
  2;                                      !- Inlet Port

OS:Space,
  {d590f671-b400-4ae3-9b9e-3600fd68fc4c}, !- Handle
  Corridor_Pod_1_ZN_1_FLR_1,              !- Name
  {9ecf549f-9cfa-4406-b0fd-ece6107f5aa5}, !- Space Type Name
  ,                                       !- Default Construction Set Name
  ,                                       !- Default Schedule Set Name
  0,                                      !- Direction of Relative North {deg}
  -64,                                    !- X Origin {m}
  9,                                      !- Y Origin {m}
  0,                                      !- Z Origin {m}
  {0fdcbf6a-4d91-46e1-9c57-01cf3ce41868}, !- Building Story Name
  {bde81996-8408-4538-b615-0c7a6590f39e}, !- Thermal Zone Name
  Yes,                                    !- Part of Total Floor Area
  ;                                       !- Design Specification Outdoor Air Object Name

OS:Surface,
  {de7ff635-3216-4425-baea-b2a23f5e9805}, !- Handle
  Computer_Class_ZN_1_FLR_1_Ceiling,      !- Name
  RoofCeiling,                            !- Surface Type
  ,                                       !- Construction Name
  {597eb46d-eacc-454e-8b06-a06f770e9515}, !- Space Name
  Outdoors,                               !- Outside Boundary Condition
  ,                                       !- Outside Boundary Condition Object
  SunExposed,                             !- Sun Exposure
  WindExposed,                            !- Wind Exposure
  ,                                       !- View Factor to Ground
  ,                                       !- Number of Vertices
  18, 0, 4,                               !- X,Y,Z Vertex 1 {m}
  18, 9, 4,                               !- X,Y,Z Vertex 2 {m}
  0, 9, 4,                                !- X,Y,Z Vertex 3 {m}
  0, 0, 4;                                !- X,Y,Z Vertex 4 {m}

OS:Connection,
  {f891a626-9643-4652-b848-6ca8917b92c4}, !- Handle
  {c29c94bc-3226-4a78-95bf-5b79e42086e3}, !- Name
  ,                                       !- Source Object
  11,                                     !- Outlet Port
  ,                                       !- Target Object
  2;                                      !- Inlet Port

OS:Space,
  {597eb46d-eacc-454e-8b06-a06f770e9515}, !- Handle
  Computer_Class_ZN_1_FLR_1,              !- Name
  {5dabe0c9-22cf-4c51-84f5-02836af7bf0f}, !- Space Type Name
  ,                                       !- Default Construction Set Name
  ,                                       !- Default Schedule Set Name
  0,                                      !- Direction of Relative North {deg}
  -18,                                    !- X Origin {m}
  73,                                     !- Y Origin {m}
  0,                                      !- Z Origin {m}
  {0fdcbf6a-4d91-46e1-9c57-01cf3ce41868}, !- Building Story Name
  {6c4ba567-230a-49d6-b8d9-5ce078998fb5}, !- Thermal Zone Name
  Yes,                                    !- Part of Total Floor Area
  ;                                       !- Design Specification Outdoor Air Object Name

OS:Connection,
  {54b42d1d-4896-4ed1-8ffb-4ea4ca97e28d}, !- Handle
  {a0bfb0bb-1e2d-410a-9052-dff6d4f5d6a1}, !- Name
  ,                                       !- Source Object
  11,                                     !- Outlet Port
  ,                                       !- Target Object
  2;                                      !- Inlet Port

OS:Space,
  {07b21581-93fb-4b92-9945-4d1b64eee859}, !- Handle
  Mult_Class_1_Pod_2_ZN_1_FLR_1,          !- Name
  {5dabe0c9-22cf-4c51-84f5-02836af7bf0f}, !- Space Type Name
  ,                                       !- Default Construction Set Name
  ,                                       !- Default Schedule Set Name
  0,                                      !- Direction of Relative North {deg}
  -53,                                    !- X Origin {m}
  30,                                     !- Y Origin {m}
  0,                                      !- Z Origin {m}
  {0fdcbf6a-4d91-46e1-9c57-01cf3ce41868}, !- Building Story Name
  {83fa89e8-9e92-4600-b0be-7c21b5a65d47}, !- Thermal Zone Name
  Yes,                                    !- Part of Total Floor Area
  ;                                       !- Design Specification Outdoor Air Object Name

OS:SubSurface,
  {9aa60026-d9c3-4cf0-b4be-7a2dd0bdf537}, !- Handle
  Main_Corridor_ZN_1_FLR_1_Wall_7_window_1, !- Name
  FixedWindow,                            !- Sub Surface Type
  ,                                       !- Construction Name
  {36086409-b5d6-4694-8602-b8abaa99ef6c}, !- Surface Name
  ,                                       !- Outside Boundary Condition Object
  ,                                       !- View Factor to Ground
  ,                                       !- Shading Control Name
  ,                                       !- Frame and Divider Name
  1,                                      !- Multiplier
  ,                                       !- Number of Vertices
  0, 20.95, 2.5157,                       !- X,Y,Z Vertex 1 {m}
  0, 20.95, 1.42763342857143,             !- X,Y,Z Vertex 2 {m}
  0, 12.05, 1.42763342857143,             !- X,Y,Z Vertex 3 {m}
  0, 12.05, 2.5157;                       !- X,Y,Z Vertex 4 {m}

OS:Surface,
  {36086409-b5d6-4694-8602-b8abaa99ef6c}, !- Handle
  Main_Corridor_ZN_1_FLR_1_Wall_7,        !- Name
  Wall,                                   !- Surface Type
  ,                                       !- Construction Name
  {21b6b646-3086-4571-89e4-599d3ed0931f}, !- Space Name
  Outdoors,                               !- Outside Boundary Condition
  ,                                       !- Outside Boundary Condition Object
  SunExposed,                             !- Sun Exposure
  WindExposed,                            !- Wind Exposure
  ,                                       !- View Factor to Ground
  ,                                       !- Number of Vertices
  0, 21, 4,                               !- X,Y,Z Vertex 1 {m}
  0, 21, 0,                               !- X,Y,Z Vertex 2 {m}
  0, 12, 0,                               !- X,Y,Z Vertex 3 {m}
  0, 12, 4;                               !- X,Y,Z Vertex 4 {m}

OS:Connection,
  {d98755fb-427d-43f9-9fec-0c847f0c55ef}, !- Handle
  {c91ae985-6221-46d0-ba4d-2bf3c685dbbc}, !- Name
  ,                                       !- Source Object
  11,                                     !- Outlet Port
  ,                                       !- Target Object
  2;                                      !- Inlet Port

OS:Space,
  {b4b707b8-a76c-4ff7-9e31-8b4888bb896e}, !- Handle
  Mult_Class_2_Pod_1_ZN_1_FLR_1,          !- Name
  {5dabe0c9-22cf-4c51-84f5-02836af7bf0f}, !- Space Type Name
  ,                                       !- Default Construction Set Name
  ,                                       !- Default Schedule Set Name
  0,                                      !- Direction of Relative North {deg}
  -53,                                    !- X Origin {m}
  12,                                     !- Y Origin {m}
  0,                                      !- Z Origin {m}
  {0fdcbf6a-4d91-46e1-9c57-01cf3ce41868}, !- Building Story Name
  {387e5a9b-99c7-4919-970e-f499e25ef4c2}, !- Thermal Zone Name
  Yes,                                    !- Part of Total Floor Area
  ;                                       !- Design Specification Outdoor Air Object Name

OS:Surface,
  {9b34c908-dd11-444a-bc97-84dc40cb09eb}, !- Handle
  Corner_Class_2_Pod_2_ZN_1_FLR_1_Wall_2, !- Name
  Wall,                                   !- Surface Type
  ,                                       !- Construction Name
  {e2c6b16f-2a2c-4d35-b94b-b7fe96755e8f}, !- Space Name
  Surface,                                !- Outside Boundary Condition
  {0dba5e82-618a-4193-8a3a-14c1e49b544f}, !- Outside Boundary Condition Object
  NoSun,                                  !- Sun Exposure
  NoWind,                                 !- Wind Exposure
  ,                                       !- View Factor to Ground
  ,                                       !- Number of Vertices
  11, 0, 4,                               !- X,Y,Z Vertex 1 {m}
  11, 0, 0,                               !- X,Y,Z Vertex 2 {m}
  11, 9, 0,                               !- X,Y,Z Vertex 3 {m}
  11, 9, 4;                               !- X,Y,Z Vertex 4 {m}

OS:Connection,
  {2fc6d69a-0fd5-4dda-b129-6b1b78b192e3}, !- Handle
  {31ff359d-0e1f-42e4-becb-dcdefabb0343}, !- Name
  ,                                       !- Source Object
  11,                                     !- Outlet Port
  ,                                       !- Target Object
  2;                                      !- Inlet Port

OS:Space,
  {e2c6b16f-2a2c-4d35-b94b-b7fe96755e8f}, !- Handle
  Corner_Class_2_Pod_2_ZN_1_FLR_1,        !- Name
  {5dabe0c9-22cf-4c51-84f5-02836af7bf0f}, !- Space Type Name
  ,                                       !- Default Construction Set Name
  ,                                       !- Default Schedule Set Name
  0,                                      !- Direction of Relative North {deg}
  -64,                                    !- X Origin {m}
  42,                                     !- Y Origin {m}
  0,                                      !- Z Origin {m}
  {0fdcbf6a-4d91-46e1-9c57-01cf3ce41868}, !- Building Story Name
  {df39fd0d-840a-4ed3-9995-0fe4f2f0f87c}, !- Thermal Zone Name
  Yes,                                    !- Part of Total Floor Area
  ;                                       !- Design Specification Outdoor Air Object Name

OS:Connection,
  {b085aea9-de12-451a-b427-1e45ec939d8e}, !- Handle
  {205b735b-d545-4b6f-a5ed-9cb4fbc9031f}, !- Name
  ,                                       !- Source Object
  11,                                     !- Outlet Port
  ,                                       !- Target Object
  2;                                      !- Inlet Port

OS:Space,
  {f2fbca46-10f4-4074-ad7f-19a644b0a591}, !- Handle
  Mult_Class_1_Pod_1_ZN_1_FLR_1,          !- Name
  {5dabe0c9-22cf-4c51-84f5-02836af7bf0f}, !- Space Type Name
  ,                                       !- Default Construction Set Name
  ,                                       !- Default Schedule Set Name
  0,                                      !- Direction of Relative North {deg}
  -53,                                    !- X Origin {m}
  0,                                      !- Y Origin {m}
  0,                                      !- Z Origin {m}
  {0fdcbf6a-4d91-46e1-9c57-01cf3ce41868}, !- Building Story Name
  {fd9372c9-8123-450e-a688-916744906c22}, !- Thermal Zone Name
  Yes,                                    !- Part of Total Floor Area
  ;                                       !- Design Specification Outdoor Air Object Name

OS:Surface,
  {5cc40af1-e333-4d97-b39c-260ea943df52}, !- Handle
  Kitchen_ZN_1_FLR_1_Ceiling,             !- Name
  RoofCeiling,                            !- Surface Type
  ,                                       !- Construction Name
  {7e16685d-bb80-41eb-95d7-ebe790a13036}, !- Space Name
  Outdoors,                               !- Outside Boundary Condition
  ,                                       !- Outside Boundary Condition Object
  SunExposed,                             !- Sun Exposure
  WindExposed,                            !- Wind Exposure
  ,                                       !- View Factor to Ground
  ,                                       !- Number of Vertices
  21, 0, 4,                               !- X,Y,Z Vertex 1 {m}
  21, 8, 4,                               !- X,Y,Z Vertex 2 {m}
  0, 8, 4,                                !- X,Y,Z Vertex 3 {m}
  0, 0, 4;                                !- X,Y,Z Vertex 4 {m}

OS:Connection,
  {c230a618-846c-48c7-bc61-ede3d91bdf92}, !- Handle
  {70bcd33b-ee42-4762-8a8a-7fc86f736635}, !- Name
  ,                                       !- Source Object
  11,                                     !- Outlet Port
  ,                                       !- Target Object
  2;                                      !- Inlet Port

OS:Space,
  {89255e58-e4d5-44fd-8e65-ada31a8a82e1}, !- Handle
  Corner_Class_1_Pod_1_ZN_1_FLR_1,        !- Name
  {5dabe0c9-22cf-4c51-84f5-02836af7bf0f}, !- Space Type Name
  ,                                       !- Default Construction Set Name
  ,                                       !- Default Schedule Set Name
  0,                                      !- Direction of Relative North {deg}
  -64,                                    !- X Origin {m}
  0,                                      !- Y Origin {m}
  0,                                      !- Z Origin {m}
  {0fdcbf6a-4d91-46e1-9c57-01cf3ce41868}, !- Building Story Name
  {2b6cf4c3-3c89-4e8f-ab9d-7e9414bae376}, !- Thermal Zone Name
  Yes,                                    !- Part of Total Floor Area
  ;                                       !- Design Specification Outdoor Air Object Name

OS:Surface,
  {003cec16-ab4f-4604-b6cb-2d6066a85cee}, !- Handle
  Corridor_Pod_3_ZN_1_FLR_1_Floor,        !- Name
  Floor,                                  !- Surface Type
  ,                                       !- Construction Name
  {d9dceb4f-608d-43ab-bf08-959bf46366a2}, !- Space Name
  Ground,                                 !- Outside Boundary Condition
  ,                                       !- Outside Boundary Condition Object
  NoSun,                                  !- Sun Exposure
  NoWind,                                 !- Wind Exposure
  ,                                       !- View Factor to Ground
  ,                                       !- Number of Vertices
  64, 3, 0,                               !- X,Y,Z Vertex 1 {m}
  64, 0, 0,                               !- X,Y,Z Vertex 2 {m}
  0, 0, 0,                                !- X,Y,Z Vertex 3 {m}
  0, 3, 0;                                !- X,Y,Z Vertex 4 {m}

OS:Connection,
  {03eb1ba9-9ea4-489b-989f-0bfdf8640835}, !- Handle
  {1ed794bf-2260-48a0-b282-e4a754aa3234}, !- Name
  ,                                       !- Source Object
  11,                                     !- Outlet Port
  ,                                       !- Target Object
  2;                                      !- Inlet Port

OS:Space,
  {d9dceb4f-608d-43ab-bf08-959bf46366a2}, !- Handle
  Corridor_Pod_3_ZN_1_FLR_1,              !- Name
  {9ecf549f-9cfa-4406-b0fd-ece6107f5aa5}, !- Space Type Name
  ,                                       !- Default Construction Set Name
  ,                                       !- Default Schedule Set Name
  0,                                      !- Direction of Relative North {deg}
  -64,                                    !- X Origin {m}
  70,                                     !- Y Origin {m}
  0,                                      !- Z Origin {m}
  {0fdcbf6a-4d91-46e1-9c57-01cf3ce41868}, !- Building Story Name
  {dbe29369-6671-4b97-918b-11ca1b54a7dc}, !- Thermal Zone Name
  Yes,                                    !- Part of Total Floor Area
  ;                                       !- Design Specification Outdoor Air Object Name

OS:Surface,