
OS:Version,
  {5cc8c9de-1845-4dd1-b729-7c3f8d94a210}, !- Handle
  2.2.0;                                  !- Version Identifier

OS:Site,
  {33a21b25-cf6d-422d-a9eb-73fff61b16f2}, !- Handle
  Quebec City_PQ_CAN,                     !- Name
  46.8,                                   !- Latitude {deg}
  -71.38,                                 !- Longitude {deg}
  -5,                                     !- Time Zone {hr}
  73,                                     !- Elevation {m}
  City;                                   !- Terrain

OS:SimulationControl,
  {d3748db6-90a4-4abf-9b1d-f90d7eeae2bb}, !- Handle
  Yes,                                    !- Do Zone Sizing Calculation
  Yes,                                    !- Do System Sizing Calculation
  Yes,                                    !- Do Plant Sizing Calculation
  No,                                     !- Run Simulation for Sizing Periods
  Yes,                                    !- Run Simulation for Weather File Run Periods
  0.04,                                   !- Loads Convergence Tolerance Value
  0.2,                                    !- Temperature Convergence Tolerance Value {deltaC}
  FullInteriorAndExterior,                !- Solar Distribution
  25,                                     !- Maximum Number of Warmup Days
  6;                                      !- Minimum Number of Warmup Days

OS:SubSurface,
  {c47f8f65-ed29-40ec-87ef-7fac74f4e8d9}, !- Handle
  Skylights_r2c4,                         !- Name
  Skylight,                               !- Sub Surface Type
  ,                                       !- Construction Name
  {007c4110-77bc-466f-ac9b-021f9a1a4397}, !- Surface Name
  ,                                       !- Outside Boundary Condition Object
  ,                                       !- View Factor to Ground
  ,                                       !- Shading Control Name
  ,                                       !- Frame and Divider Name
  ,                                       !- Multiplier
  ,                                       !- Number of Vertices
  23.7822, 10.4648, 6.096,                !- X,Y,Z Vertex 1 {m}
  23.7822, 11.684, 6.096,                 !- X,Y,Z Vertex 2 {m}
  22.563, 11.684, 6.096,                  !- X,Y,Z Vertex 3 {m}
  22.563, 10.4648, 6.096;                 !- X,Y,Z Vertex 4 {m}

OS:Surface,
  {007c4110-77bc-466f-ac9b-021f9a1a4397}, !- Handle
  Core_Retail_Roof,                       !- Name
  RoofCeiling,                            !- Surface Type
  ,                                       !- Construction Name
  {308a9ccd-586a-4231-b605-b35b346c50c8}, !- Space Name
  Outdoors,                               !- Outside Boundary Condition
  ,                                       !- Outside Boundary Condition Object
  SunExposed,                             !- Sun Exposure
  WindExposed,                            !- Wind Exposure
  ,                                       !- View Factor to Ground
  ,                                       !- Number of Vertices
  29.135, -3, 6.096,                      !- X,Y,Z Vertex 1 {m}
  29.135, 0, 6.096,                       !- X,Y,Z Vertex 2 {m}
  54.27, 0, 6.096,                        !- X,Y,Z Vertex 3 {m}
  54.27, 29.27, 6.096,                    !- X,Y,Z Vertex 4 {m}
  0, 29.27, 6.096,                        !- X,Y,Z Vertex 5 {m}
  0, 0, 6.096,                            !- X,Y,Z Vertex 6 {m}
  25.135, 0, 6.096,                       !- X,Y,Z Vertex 7 {m}
  25.135, -3, 6.096;                      !- X,Y,Z Vertex 8 {m}

OS:Space,
  {308a9ccd-586a-4231-b605-b35b346c50c8}, !- Handle
  Core_Retail,                            !- Name
  {662275a2-fcaa-4b50-a1e5-61043bcf4896}, !- Space Type Name
  ,                                       !- Default Construction Set Name
  ,                                       !- Default Schedule Set Name
  0,                                      !- Direction of Relative North {deg}
  0,                                      !- X Origin {m}
  6,                                      !- Y Origin {m}
  0,                                      !- Z Origin {m}
  {abec4604-26f9-4acb-88ed-c56f81424c93}, !- Building Story Name
  {8eb9af4b-87b2-4135-953e-2cc4da8d7647}, !- Thermal Zone Name
  Yes;                                    !- Part of Total Floor Area

OS:SubSurface,
  {923ba796-4efe-41c0-aa81-5ad4e78c9894}, !- Handle
  Skylights_r4c1,                         !- Name
  Skylight,                               !- Sub Surface Type
  ,                                       !- Construction Name
  {007c4110-77bc-466f-ac9b-021f9a1a4397}, !- Surface Name
  ,                                       !- Outside Boundary Condition Object
  ,                                       !- View Factor to Ground
  ,                                       !- Shading Control Name
  ,                                       !- Frame and Divider Name
  ,                                       !- Multiplier
  ,                                       !- Number of Vertices
  4.572, 24.698, 6.096,                   !- X,Y,Z Vertex 1 {m}
  4.572, 25.9172, 6.096,                  !- X,Y,Z Vertex 2 {m}
  3.3528, 25.9172, 6.096,                 !- X,Y,Z Vertex 3 {m}
  3.3528, 24.698, 6.096;                  !- X,Y,Z Vertex 4 {m}

OS:SubSurface,
  {e4f7c68c-9df7-4682-a866-0018a9219c79}, !- Handle
  Skylights_r1c1,                         !- Name
  Skylight,                               !- Sub Surface Type
  ,                                       !- Construction Name
  {007c4110-77bc-466f-ac9b-021f9a1a4397}, !- Surface Name
  ,                                       !- Outside Boundary Condition Object
  ,                                       !- View Factor to Ground
  ,                                       !- Shading Control Name
  ,                                       !- Frame and Divider Name
  ,                                       !- Multiplier
  ,                                       !- Number of Vertices
  4.572, 3.3528, 6.096,                   !- X,Y,Z Vertex 1 {m}
  4.572, 4.572, 6.096,                    !- X,Y,Z Vertex 2 {m}
  3.3528, 4.572, 6.096,                   !- X,Y,Z Vertex 3 {m}
  3.3528, 3.3528, 6.096;                  !- X,Y,Z Vertex 4 {m}

OS:SubSurface,
  {08d8d4ad-9ea3-42cd-a7bb-15ef3c5ccdb8}, !- Handle
  Skylights_r2c1,                         !- Name
  Skylight,                               !- Sub Surface Type
  ,                                       !- Construction Name
  {007c4110-77bc-466f-ac9b-021f9a1a4397}, !- Surface Name
  ,                                       !- Outside Boundary Condition Object
  ,                                       !- View Factor to Ground
  ,                                       !- Shading Control Name
  ,                                       !- Frame and Divider Name
  ,                                       !- Multiplier
  ,                                       !- Number of Vertices
  4.572, 10.4648, 6.096,                  !- X,Y,Z Vertex 1 {m}
  4.572, 11.684, 6.096,                   !- X,Y,Z Vertex 2 {m}
  3.3528, 11.684, 6.096,                  !- X,Y,Z Vertex 3 {m}
  3.3528, 10.4648, 6.096;                 !- X,Y,Z Vertex 4 {m}

OS:Surface,
  {dcf01724-4f63-4491-b2c4-3c1b2c9b4b11}, !- Handle
  Back_Space_Wall_South,                  !- Name
  Wall,                                   !- Surface Type
  ,                                       !- Construction Name
  {77c9e620-8800-4f89-addb-d3f75a7e86a8}, !- Space Name
  Surface,                                !- Outside Boundary Condition
  {f7c15bc0-f512-4b7e-956b-057bc9674ae8}, !- Outside Boundary Condition Object
  NoSun,                                  !- Sun Exposure
  NoWind,                                 !- Wind Exposure
  ,                                       !- View Factor to Ground
  ,                                       !- Number of Vertices
  0, 0, 6.096,                            !- X,Y,Z Vertex 1 {m}
  0, 0, 0,                                !- X,Y,Z Vertex 2 {m}
  54.27, 0, 0,                            !- X,Y,Z Vertex 3 {m}
  54.27, 0, 6.096;                        !- X,Y,Z Vertex 4 {m}

OS:Space,
  {77c9e620-8800-4f89-addb-d3f75a7e86a8}, !- Handle
  Back_Space,                             !- Name
  {094f3603-edbf-45c8-b8e8-658f8cc80969}, !- Space Type Name
  ,                                       !- Default Construction Set Name
  ,                                       !- Default Schedule Set Name
  0,                                      !- Direction of Relative North {deg}
  0,                                      !- X Origin {m}
  35.27,                                  !- Y Origin {m}
  0,                                      !- Z Origin {m}
  {abec4604-26f9-4acb-88ed-c56f81424c93}, !- Building Story Name
  {dfbd552d-19fb-4e9e-af80-c3809da4169f}, !- Thermal Zone Name
  Yes;                                    !- Part of Total Floor Area

OS:Space,
  {ff444dc8-6aab-41a0-b337-ab0ed7d7956f}, !- Handle
  Front_Retail,                           !- Name
  {662275a2-fcaa-4b50-a1e5-61043bcf4896}, !- Space Type Name
  ,                                       !- Default Construction Set Name
  ,                                       !- Default Schedule Set Name
  0,                                      !- Direction of Relative North {deg}
  29.135,                                 !- X Origin {m}
  0,                                      !- Y Origin {m}
  0,                                      !- Z Origin {m}
  {abec4604-26f9-4acb-88ed-c56f81424c93}, !- Building Story Name
  {14ea91ca-93b2-469d-8225-1aa0fa91ae4d}, !- Thermal Zone Name
  Yes;                                    !- Part of Total Floor Area

OS:Surface,
  {130d2ce1-8031-444a-a8e7-43dd4be3a0df}, !- Handle
  Front_Retail_Wall_West_1,               !- Name
  Wall,                                   !- Surface Type
  ,                                       !- Construction Name
  {ff444dc8-6aab-41a0-b337-ab0ed7d7956f}, !- Space Name
  Surface,                                !- Outside Boundary Condition
  {5e1f6d7e-ff3b-4d67-9c47-30ae92711196}, !- Outside Boundary Condition Object
  NoSun,                                  !- Sun Exposure
  NoWind,                                 !- Wind Exposure
  ,                                       !- View Factor to Ground
  ,                                       !- Number of Vertices
  0, 3, 6.096,                            !- X,Y,Z Vertex 1 {m}
  0, 3, 0,                                !- X,Y,Z Vertex 2 {m}
  0, 0, 0,                                !- X,Y,Z Vertex 3 {m}
  0, 0, 6.096;                            !- X,Y,Z Vertex 4 {m}

OS:Surface,
  {b1864818-2d2f-44a9-856f-e7426af7ed74}, !- Handle
  Point_Of_Sale_Wall_South,               !- Name
  Wall,                                   !- Surface Type
  ,                                       !- Construction Name
  {f3f2316b-fa00-4041-a540-7f94e0c43ec9}, !- Space Name
  Outdoors,                               !- Outside Boundary Condition
  ,                                       !- Outside Boundary Condition Object
  SunExposed,                             !- Sun Exposure
  WindExposed,                            !- Wind Exposure
  ,                                       !- View Factor to Ground
  ,                                       !- Number of Vertices
  0, 0, 6.096,                            !- X,Y,Z Vertex 1 {m}
  0, 0, 0,                                !- X,Y,Z Vertex 2 {m}
  25.135, 0, 0,                           !- X,Y,Z Vertex 3 {m}
  25.135, 0, 6.096;                       !- X,Y,Z Vertex 4 {m}

OS:Space,
  {f3f2316b-fa00-4041-a540-7f94e0c43ec9}, !- Handle
  Point_Of_Sale,                          !- Name
  {662275a2-fcaa-4b50-a1e5-61043bcf4896}, !- Space Type Name
  ,                                       !- Default Construction Set Name
  ,                                       !- Default Schedule Set Name
  0,                                      !- Direction of Relative North {deg}
  0,                                      !- X Origin {m}
  0,                                      !- Y Origin {m}
  0,                                      !- Z Origin {m}
  {abec4604-26f9-4acb-88ed-c56f81424c93}, !- Building Story Name
  {3dd73b1c-1f1a-4dc0-8f31-41b9eb20760c}, !- Thermal Zone Name
  Yes;                                    !- Part of Total Floor Area

OS:Space,
  {9509fe22-2b00-4be9-ba86-d4e9003d2d32}, !- Handle
  Front_Entry,                            !- Name
  {02860ce7-d628-4d6e-81bd-376864330955}, !- Space Type Name
  ,                                       !- Default Construction Set Name
  ,                                       !- Default Schedule Set Name
  0,                                      !- Direction of Relative North {deg}
  25.135,                                 !- X Origin {m}
  0,                                      !- Y Origin {m}
  0,                                      !- Z Origin {m}
  {abec4604-26f9-4acb-88ed-c56f81424c93}, !- Building Story Name
  {b648845d-fc49-4a8a-8639-d25bba40207c}, !- Thermal Zone Name
  Yes;                                    !- Part of Total Floor Area

OS:ConvergenceLimits,
  {01e133af-031a-422d-87f7-26793ea40ec2}, !- Handle
  1,                                      !- Minimum System Timestep {minutes}
  20;                                     !- Maximum HVAC Iterations

OS:Surface,
  {81686f66-944c-4647-a238-0e76788e8058}, !- Handle
  Front_Retail_Roof,                      !- Name
  RoofCeiling,                            !- Surface Type
  ,                                       !- Construction Name
  {ff444dc8-6aab-41a0-b337-ab0ed7d7956f}, !- Space Name
  Outdoors,                               !- Outside Boundary Condition
  ,                                       !- Outside Boundary Condition Object
  SunExposed,                             !- Sun Exposure
  WindExposed,                            !- Wind Exposure
  ,                                       !- View Factor to Ground
  ,                                       !- Number of Vertices
  25.135, 0, 6.096,                       !- X,Y,Z Vertex 1 {m}
  25.135, 6, 6.096,                       !- X,Y,Z Vertex 2 {m}
  0, 6, 6.096,                            !- X,Y,Z Vertex 3 {m}
  0, 0, 6.096;                            !- X,Y,Z Vertex 4 {m}

OS:Surface,
  {e7a66a65-5dac-4b98-9c2e-4e6962e737b1}, !- Handle
  Front_Retail_Walll_East,                !- Name
  Wall,                                   !- Surface Type
  ,                                       !- Construction Name
  {ff444dc8-6aab-41a0-b337-ab0ed7d7956f}, !- Space Name
  Outdoors,                               !- Outside Boundary Condition
  ,                                       !- Outside Boundary Condition Object
  SunExposed,                             !- Sun Exposure
  WindExposed,                            !- Wind Exposure
  ,                                       !- View Factor to Ground
  ,                                       !- Number of Vertices
  25.135, 0, 6.096,                       !- X,Y,Z Vertex 1 {m}
  25.135, 0, 0,                           !- X,Y,Z Vertex 2 {m}
  25.135, 6, 0,                           !- X,Y,Z Vertex 3 {m}
  25.135, 6, 6.096;                       !- X,Y,Z Vertex 4 {m}

OS:Surface,
  {f7c15bc0-f512-4b7e-956b-057bc9674ae8}, !- Handle
  Core_Retail_Wall_North,                 !- Name
  Wall,                                   !- Surface Type
  ,                                       !- Construction Name
  {308a9ccd-586a-4231-b605-b35b346c50c8}, !- Space Name
  Surface,                                !- Outside Boundary Condition
  {dcf01724-4f63-4491-b2c4-3c1b2c9b4b11}, !- Outside Boundary Condition Object
  NoSun,                                  !- Sun Exposure
  NoWind,                                 !- Wind Exposure
  ,                                       !- View Factor to Ground
  ,                                       !- Number of Vertices
  54.27, 29.27, 6.096,                    !- X,Y,Z Vertex 1 {m}
  54.27, 29.27, 0,                        !- X,Y,Z Vertex 2 {m}
  0, 29.27, 0,                            !- X,Y,Z Vertex 3 {m}
  0, 29.27, 6.096;                        !- X,Y,Z Vertex 4 {m}

OS:Surface,
  {e280859a-282e-4bc0-994b-05b00beebf64}, !- Handle
  Point_Of_Sale_Wall_East_2,              !- Name
  Wall,                                   !- Surface Type
  ,                                       !- Construction Name
  {f3f2316b-fa00-4041-a540-7f94e0c43ec9}, !- Space Name
  Surface,                                !- Outside Boundary Condition
  {0e17c64b-d8e9-4572-8976-6988ad7d9b7a}, !- Outside Boundary Condition Object
  NoSun,                                  !- Sun Exposure
  NoWind,                                 !- Wind Exposure
  ,                                       !- View Factor to Ground
  ,                                       !- Number of Vertices
  25.135, 3, 6.096,                       !- X,Y,Z Vertex 1 {m}
  25.135, 3, 0,                           !- X,Y,Z Vertex 2 {m}
  25.135, 6, 0,                           !- X,Y,Z Vertex 3 {m}
  25.135, 6, 6.096;                       !- X,Y,Z Vertex 4 {m}

OS:SubSurface,
  {e9a5918d-4d11-4048-9d06-71e0a8588d8a}, !- Handle
  Skylights_r2c3,                         !- Name
  Skylight,                               !- Sub Surface Type
  ,                                       !- Construction Name
  {007c4110-77bc-466f-ac9b-021f9a1a4397}, !- Surface Name
  ,                                       !- Outside Boundary Condition Object
  ,                                       !- View Factor to Ground
  ,                                       !- Shading Control Name
  ,                                       !- Frame and Divider Name
  ,                                       !- Multiplier
  ,                                       !- Number of Vertices
  17.3736, 10.4648, 6.096,                !- X,Y,Z Vertex 1 {m}
  17.3736, 11.684, 6.096,                 !- X,Y,Z Vertex 2 {m}
  16.1544, 11.684, 6.096,                 !- X,Y,Z Vertex 3 {m}
  16.1544, 10.4648, 6.096;                !- X,Y,Z Vertex 4 {m}

OS:Surface,
  {574d5170-fad7-4d01-b21b-7e3c449e0595}, !- Handle
  Back_Space_Wall_West,                   !- Name
  Wall,                                   !- Surface Type
  ,                                       !- Construction Name
  {77c9e620-8800-4f89-addb-d3f75a7e86a8}, !- Space Name
  Outdoors,                               !- Outside Boundary Condition
  ,                                       !- Outside Boundary Condition Object
  SunExposed,                             !- Sun Exposure
  WindExposed,                            !- Wind Exposure
  ,                                       !- View Factor to Ground
  ,                                       !- Number of Vertices
  0, 7, 6.096,                            !- X,Y,Z Vertex 1 {m}
  0, 7, 0,                                !- X,Y,Z Vertex 2 {m}
  0, 0, 0,                                !- X,Y,Z Vertex 3 {m}
  0, 0, 6.096;                            !- X,Y,Z Vertex 4 {m}

OS:SubSurface,
  {0b91ee32-f36d-404c-806f-def2f984cbe0}, !- Handle
  Skylights_r4c3,                         !- Name
  Skylight,                               !- Sub Surface Type
  ,                                       !- Construction Name
  {007c4110-77bc-466f-ac9b-021f9a1a4397}, !- Surface Name
  ,                                       !- Outside Boundary Condition Object
  ,                                       !- View Factor to Ground
  ,                                       !- Shading Control Name
  ,                                       !- Frame and Divider Name
  ,                                       !- Multiplier
  ,                                       !- Number of Vertices
  17.3736, 24.698, 6.096,                 !- X,Y,Z Vertex 1 {m}
  17.3736, 25.9172, 6.096,                !- X,Y,Z Vertex 2 {m}
  16.1544, 25.9172, 6.096,                !- X,Y,Z Vertex 3 {m}
  16.1544, 24.698, 6.096;                 !- X,Y,Z Vertex 4 {m}

OS:Surface,
  {f86551cc-6113-47a3-800a-fab5fee8d88a}, !- Handle
  Core_Retail_Wall_South_2,               !- Name
  Wall,                                   !- Surface Type
  ,                                       !- Construction Name
  {308a9ccd-586a-4231-b605-b35b346c50c8}, !- Space Name
  Surface,                                !- Outside Boundary Condition
  {b0434d68-632f-47e7-86d1-ed809d771a34}, !- Outside Boundary Condition Object
  NoSun,                                  !- Sun Exposure
  NoWind,                                 !- Wind Exposure
  ,                                       !- View Factor to Ground
  ,                                       !- Number of Vertices
  25.135, -3, 6.096,                      !- X,Y,Z Vertex 1 {m}
  25.135, -3, 0,                          !- X,Y,Z Vertex 2 {m}
  29.135, -3, 0,                          !- X,Y,Z Vertex 3 {m}
  29.135, -3, 6.096;                      !- X,Y,Z Vertex 4 {m}

OS:RunPeriod,
  {e8112eb1-bf0f-4a3e-9504-05cec54a9d5a}, !- Handle
  Run Period 1,                           !- Name
  1,                                      !- Begin Month
  1,                                      !- Begin Day of Month
  12,                                     !- End Month
  31,                                     !- End Day of Month
  No,                                     !- Use Weather File Holidays and Special Days
  No,                                     !- Use Weather File Daylight Saving Period
  No,                                     !- Apply Weekend Holiday Rule
  Yes,                                    !- Use Weather File Rain Indicators
  Yes,                                    !- Use Weather File Snow Indicators
  1;                                      !- Number of Times Runperiod to be Repeated

OS:YearDescription,
  {4b88897e-f470-4ec3-b5b7-eccdc7730b3c}, !- Handle
  ,                                       !- Calendar Year
  Sunday;                                 !- Day of Week for Start Day

OS:Surface,
  {56a9975f-d855-4b54-88f1-82307e9f180e}, !- Handle
  Front_Entry_Roof,                       !- Name
  RoofCeiling,                            !- Surface Type
  ,                                       !- Construction Name
  {9509fe22-2b00-4be9-ba86-d4e9003d2d32}, !- Space Name
  Outdoors,                               !- Outside Boundary Condition
  ,                                       !- Outside Boundary Condition Object
  SunExposed,                             !- Sun Exposure
  WindExposed,                            !- Wind Exposure
  ,                                       !- View Factor to Ground
  ,                                       !- Number of Vertices
  4, 0, 6.096,                            !- X,Y,Z Vertex 1 {m}
  4, 3, 6.096,                            !- X,Y,Z Vertex 2 {m}
  0, 3, 6.096,                            !- X,Y,Z Vertex 3 {m}
  0, 0, 6.096;                            !- X,Y,Z Vertex 4 {m}

OS:Surface,
  {a20f92e2-6d85-44b9-b5d8-6f8bf69281de}, !- Handle
  Core_Retail_Floor,                      !- Name
  Floor,                                  !- Surface Type
  ,                                       !- Construction Name
  {308a9ccd-586a-4231-b605-b35b346c50c8}, !- Space Name
  Ground,                                 !- Outside Boundary Condition
  ,                                       !- Outside Boundary Condition Object
  NoSun,                                  !- Sun Exposure
  NoWind,                                 !- Wind Exposure
  ,                                       !- View Factor to Ground
  ,                                       !- Number of Vertices
  54.27, 29.27, 0,                        !- X,Y,Z Vertex 1 {m}
  54.27, 0, 0,                            !- X,Y,Z Vertex 2 {m}
  29.135, 0, 0,                           !- X,Y,Z Vertex 3 {m}
  29.135, -3, 0,                          !- X,Y,Z Vertex 4 {m}
  25.135, -3, 0,                          !- X,Y,Z Vertex 5 {m}
  25.135, 0, 0,                           !- X,Y,Z Vertex 6 {m}
  0, 0, 0,                                !- X,Y,Z Vertex 7 {m}
  0, 29.27, 0;                            !- X,Y,Z Vertex 8 {m}

OS:Surface,
  {9e052095-17db-4f99-be9f-ed9891635891}, !- Handle
  Point_Of_Sale_Wall_North,               !- Name
  Wall,                                   !- Surface Type
  ,                                       !- Construction Name
  {f3f2316b-fa00-4041-a540-7f94e0c43ec9}, !- Space Name
  Surface,                                !- Outside Boundary Condition
  {02838114-74d6-43ce-adfa-6fd01d3a20b4}, !- Outside Boundary Condition Object
  NoSun,                                  !- Sun Exposure
  NoWind,                                 !- Wind Exposure
  ,                                       !- View Factor to Ground
  ,                                       !- Number of Vertices
  25.135, 6, 6.096,                       !- X,Y,Z Vertex 1 {m}
  25.135, 6, 0,                           !- X,Y,Z Vertex 2 {m}
  0, 6, 0,                                !- X,Y,Z Vertex 3 {m}
  0, 6, 6.096;                            !- X,Y,Z Vertex 4 {m}

OS:Surface,
  {31bad697-4ab6-43a2-95c9-be82045e796b}, !- Handle
  Front_Entry_Wall_South,                 !- Name
  Wall,                                   !- Surface Type
  ,                                       !- Construction Name
  {9509fe22-2b00-4be9-ba86-d4e9003d2d32}, !- Space Name
  Outdoors,                               !- Outside Boundary Condition
  ,                                       !- Outside Boundary Condition Object
  SunExposed,                             !- Sun Exposure
  WindExposed,                            !- Wind Exposure
  ,                                       !- View Factor to Ground
  ,                                       !- Number of Vertices
  0, 0, 6.096,                            !- X,Y,Z Vertex 1 {m}
  0, 0, 0,                                !- X,Y,Z Vertex 2 {m}
  4, 0, 0,                                !- X,Y,Z Vertex 3 {m}
  4, 0, 6.096;                            !- X,Y,Z Vertex 4 {m}

OS:Surface,
  {cef973eb-e048-41ee-a604-ff105a38d5ef}, !- Handle
  Core_Retail_Wall_East_2,                !- Name
  Wall,                                   !- Surface Type
  ,                                       !- Construction Name
  {308a9ccd-586a-4231-b605-b35b346c50c8}, !- Space Name
  Outdoors,                               !- Outside Boundary Condition
  ,                                       !- Outside Boundary Condition Object
  SunExposed,                             !- Sun Exposure
  WindExposed,                            !- Wind Exposure
  ,                                       !- View Factor to Ground
  ,                                       !- Number of Vertices
  54.27, 0, 6.096,                        !- X,Y,Z Vertex 1 {m}
  54.27, 0, 0,                            !- X,Y,Z Vertex 2 {m}
  54.27, 29.27, 0,                        !- X,Y,Z Vertex 3 {m}
  54.27, 29.27, 6.096;                    !- X,Y,Z Vertex 4 {m}

OS:Output:Meter,
  {e4199d80-9307-426c-bf30-c9675ea6bf8e}, !- Handle
  Electricity:Building,                   !- Name
  hourly,                                 !- Reporting Frequency
  True,                                   !- Meter File Only
  False;                                  !- Cumulative

OS:Surface,
  {fbb9dae1-2373-4060-86cd-612591d00e85}, !- Handle
  Point_Of_Sale_Wall_West,                !- Name
  Wall,                                   !- Surface Type
  ,                                       !- Construction Name
  {f3f2316b-fa00-4041-a540-7f94e0c43ec9}, !- Space Name
  Outdoors,                               !- Outside Boundary Condition
  ,                                       !- Outside Boundary Condition Object
  SunExposed,                             !- Sun Exposure
  WindExposed,                            !- Wind Exposure
  ,                                       !- View Factor to Ground
  ,                                       !- Number of Vertices
  0, 6, 6.096,                            !- X,Y,Z Vertex 1 {m}
  0, 6, 0,                                !- X,Y,Z Vertex 2 {m}
  0, 0, 0,                                !- X,Y,Z Vertex 3 {m}
  0, 0, 6.096;                            !- X,Y,Z Vertex 4 {m}

OS:SubSurface,
  {d87f44ee-c4ea-4ee8-9311-6ff534f87b6d}, !- Handle
  Skylights_r3c3,                         !- Name
  Skylight,                               !- Sub Surface Type
  ,                                       !- Construction Name
  {007c4110-77bc-466f-ac9b-021f9a1a4397}, !- Surface Name
  ,                                       !- Outside Boundary Condition Object
  ,                                       !- View Factor to Ground
  ,                                       !- Shading Control Name
  ,                                       !- Frame and Divider Name
  ,                                       !- Multiplier
  ,                                       !- Number of Vertices
  17.3736, 17.5768, 6.096,                !- X,Y,Z Vertex 1 {m}
  17.3736, 18.796, 6.096,                 !- X,Y,Z Vertex 2 {m}
  16.1544, 18.796, 6.096,                 !- X,Y,Z Vertex 3 {m}
  16.1544, 17.5768, 6.096;                !- X,Y,Z Vertex 4 {m}

OS:SubSurface,
  {00fb3987-0bae-45f7-85cf-263e421d2c87}, !- Handle
  Skylights_r3c1,                         !- Name
  Skylight,                               !- Sub Surface Type
  ,                                       !- Construction Name
  {007c4110-77bc-466f-ac9b-021f9a1a4397}, !- Surface Name
  ,                                       !- Outside Boundary Condition Object
  ,                                       !- View Factor to Ground
  ,                                       !- Shading Control Name
  ,                                       !- Frame and Divider Name
  ,                                       !- Multiplier
  ,                                       !- Number of Vertices
  4.572, 17.5768, 6.096,                  !- X,Y,Z Vertex 1 {m}
  4.572, 18.796, 6.096,                   !- X,Y,Z Vertex 2 {m}